Flow Title=constant
Program Version=6.70
Number of Profiles= 1 
Profile Names=PF 1
River Rch & RM=river,reach_01        ,100     
      10
Boundary for River Rch & Prof#=river,reach_01        , 1 
Up Type= 0 
Dn Type= 1 
Dn Known WS=0.7
DSS Import StartDate=
DSS Import StartTime=
DSS Import EndDate=
DSS Import EndTime=
DSS Import GetInterval= 0 
DSS Import Interval=
DSS Import GetPeak= 0 
DSS Import FillOption= 0 
